Version 4
SHEET 1 880 680
WIRE 240 -64 160 -64
WIRE 240 -48 240 -64
WIRE 160 -32 160 -64
WIRE -32 96 -144 96
WIRE 96 96 48 96
WIRE 240 96 96 96
WIRE 384 96 320 96
WIRE -144 144 -144 96
WIRE 160 144 160 48
WIRE 96 160 96 96
WIRE 128 160 96 160
WIRE 384 176 384 96
WIRE 384 176 192 176
WIRE 128 192 0 192
WIRE 0 240 0 192
WIRE -144 256 -144 224
WIRE 160 288 160 208
FLAG 240 -48 0
FLAG 160 368 0
FLAG 0 320 0
FLAG -144 256 0
FLAG 384 96 VOUT
FLAG -144 96 VIN
SYMBOL OpAmps\\OP07 160 112 R0
SYMATTR InstName U1
SYMBOL voltage 160 64 R180
WINDOW 0 24 96 Left 2
WINDOW 3 24 16 Left 2
WINDOW 123 0 0 Left 0
WINDOW 39 0 0 Left 0
SYMATTR InstName V1
SYMATTR Value 9
SYMBOL voltage 160 384 R180
WINDOW 0 24 96 Left 2
WINDOW 3 24 16 Left 2
WINDOW 123 0 0 Left 0
WINDOW 39 0 0 Left 0
SYMATTR InstName V2
SYMATTR Value 9
SYMBOL res 64 80 R90
WINDOW 0 0 56 VBottom 2
WINDOW 3 32 56 VTop 2
SYMATTR InstName R1
SYMATTR Value 10k
SYMBOL res 336 80 R90
WINDOW 0 0 56 VBottom 2
WINDOW 3 32 56 VTop 2
SYMATTR InstName R2
SYMATTR Value 15k
SYMBOL voltage 0 224 R0
WINDOW 123 0 0 Left 0
WINDOW 39 0 0 Left 0
SYMATTR InstName V3
SYMATTR Value 2
SYMBOL voltage -144 128 R0
WINDOW 123 0 0 Left 0
WINDOW 39 0 0 Left 0
SYMATTR InstName V4
SYMATTR Value 0
TEXT -216 -56 Left 2 !.dc V4 0 3.3 0.1
