Version 4
SHEET 1 880 680
WIRE 800 -64 768 -64
WIRE 864 -64 800 -64
WIRE 768 48 768 -64
WIRE 720 64 592 64
WIRE 720 112 624 112
WIRE -32 128 -192 128
WIRE 304 128 224 128
WIRE 368 128 304 128
WIRE 368 160 368 128
WIRE -192 208 -192 128
WIRE 368 272 368 240
WIRE 496 272 368 272
WIRE 560 272 496 272
WIRE 368 304 368 272
WIRE 560 368 560 272
WIRE 96 416 96 224
WIRE 240 416 96 416
WIRE 368 416 368 384
WIRE 368 416 240 416
WIRE 368 432 368 416
WIRE 368 544 368 512
WIRE 560 544 560 448
WIRE 560 544 368 544
WIRE 768 544 768 128
WIRE 768 544 560 544
WIRE 368 576 368 544
FLAG 368 576 0
FLAG -192 288 0
FLAG 496 272 VOUT
FLAG 304 128 VREG
FLAG 240 416 VADJ
FLAG 800 -64 ADJ
FLAG 592 64 VREG
FLAG 624 112 VADJ
SYMBOL PowerProducts\\LT317A 96 128 R0
SYMATTR InstName U1
SYMBOL res 352 144 R0
SYMATTR InstName R1
SYMATTR Value 4.7
SYMBOL res 352 288 R0
SYMATTR InstName R2
SYMATTR Value 237
SYMBOL res 352 416 R0
SYMATTR InstName R3
SYMATTR Value 1300
SYMBOL voltage -192 192 R0
WINDOW 123 0 0 Left 2
WINDOW 39 24 124 Left 2
SYMATTR InstName V1
SYMATTR Value 12
SYMATTR SpiceLine Rser=0.1
SYMBOL res 544 352 R0
SYMATTR InstName R4
SYMATTR Value 10
SYMBOL e 768 32 R0
SYMATTR InstName E1
SYMATTR Value 1
TEXT -72 -72 Left 2 !.op
